Circuit: * Z:\home\wbraun\Projects\leery-lisn\sim\limiter.asc

.OP point found by inspection.

Date: Sat Jul 24 15:02:54 2021
Total elapsed time: 0.059 seconds.

tnom = 27
temp = 27
method = modified trap
totiter = 2437
traniter = 2437
tranpoints = 1186
accept = 1149
rejected = 37
matrix size = 15
fillins = 0
solver = Normal
Matrix Compiler1:      39 opcodes  0.2/[0.1]/0.1
Matrix Compiler2: 1.03 KB object code size  0.1/0.1/[0.1]

