Circuit: * Z:\home\wbraun\Projects\leery-lisn\sim\limiter_ac.asc

.OP point found by inspection.

Date: Sat Jul 24 15:02:43 2021
Total elapsed time: 0.032 seconds.

tnom = 27
temp = 27
method = trap
totiter = 0
traniter = 0
tranpoints = 0
accept = 0
rejected = 0
matrix size = 13
fillins = 1
solver = Normal

